OPT_V9/4ts_w_storgae_myc_NEW_PARAM/network_debug.txt
Pandapower Network Debug Info
==================================================

BUS:
          name  vn_kv type  zone  in_service   geo
0        Bus 8    0.4    b  None        True  None
1        Bus 9    0.4    b  None        True  None
2       Bus 10    0.4    b  None        True  None
3       Bus 11    0.4    b  None        True  None
4       Bus 16    0.4    b  None        True  None
5       Bus 17    0.4    b  None        True  None
6       Bus 18    0.4    b  None        True  None
7       Bus 19    0.4    b  None        True  None
8       Bus 20    0.4    b  None        True  None
9       Bus 21   15.0    b  None        True  None
10      Bus 22   15.0    b  None        True  None
11      Bus 23   15.0    b  None        True  None
12      Bus 24   15.0    b  None        True  None
13      Bus 25   15.0    b  None        True  None
14      Bus 26   15.0    b  None        True  None
15    Sub MV 2   15.0    b  None        True  None
16    Sub LV 2    0.4    b  None        True  None
17    Sub MV 5   15.0    b  None        True  None
18    Sub LV 5    0.4    b  None        True  None
19  Slack HV 0   70.0    b  None        True  None
20  Slack MV 0   15.0    b  None        True  None
21  Slack HV 1   70.0    b  None        True  None
22  Slack MV 1   15.0    b  None        True  None
--------------------------------------------------

LOAD:
          name  bus      p_mw    q_mvar  const_z_percent  const_i_percent  sn_mva  scaling  in_service type
0    Load 8 T1    0 -0.007208  0.001177              0.0              0.0     NaN      1.0        True  wye
1    Load 8 T2    0 -0.006859 -0.000773              0.0              0.0     NaN      1.0        True  wye
2    Load 8 T3    0 -0.007230  0.000977              0.0              0.0     NaN      1.0        True  wye
3    Load 8 T4    0 -0.007406  0.000864              0.0              0.0     NaN      1.0        True  wye
4    Load 9 T1    1  0.001448  0.001627              0.0              0.0     NaN      1.0        True  wye
5    Load 9 T2    1  0.001310  0.001910              0.0              0.0     NaN      1.0        True  wye
6    Load 9 T3    1  0.001408  0.001609              0.0              0.0     NaN      1.0        True  wye
7    Load 9 T4    1  0.001578  0.001655              0.0              0.0     NaN      1.0        True  wye
8   Load 10 T1    2 -0.003496 -0.001057              0.0              0.0     NaN      1.0        True  wye
9   Load 10 T2    2 -0.002507 -0.000849              0.0              0.0     NaN      1.0        True  wye
10  Load 10 T3    2 -0.001975 -0.000724              0.0              0.0     NaN      1.0        True  wye
11  Load 10 T4    2 -0.003996  0.000617              0.0              0.0     NaN      1.0        True  wye
12  Load 11 T1    3 -0.002593  0.001950              0.0              0.0     NaN      1.0        True  wye
13  Load 11 T2    3 -0.001057  0.000110              0.0              0.0     NaN      1.0        True  wye
14  Load 11 T3    3 -0.001789 -0.000845              0.0              0.0     NaN      1.0        True  wye
15  Load 11 T4    3 -0.003035  0.001057              0.0              0.0     NaN      1.0        True  wye
16  Load 16 T1    4 -0.002151  0.000430              0.0              0.0     NaN      1.0        True  wye
17  Load 16 T2    4 -0.001853 -0.000003              0.0              0.0     NaN      1.0        True  wye
18  Load 16 T3    4 -0.001684  0.000438              0.0              0.0     NaN      1.0        True  wye
19  Load 16 T4    4 -0.002484  0.001452              0.0              0.0     NaN      1.0        True  wye
20  Load 17 T1    5 -0.003382  0.002082              0.0              0.0     NaN      1.0        True  wye
21  Load 17 T2    5 -0.003216  0.000817              0.0              0.0     NaN      1.0        True  wye
22  Load 17 T3    5 -0.002952  0.000965              0.0              0.0     NaN      1.0        True  wye
23  Load 17 T4    5 -0.003354  0.003871              0.0              0.0     NaN      1.0        True  wye
24  Load 18 T1    6  0.001317  0.001141              0.0              0.0     NaN      1.0        True  wye
25  Load 18 T2    6  0.001335  0.001128              0.0              0.0     NaN      1.0        True  wye
26  Load 18 T3    6  0.001032  0.000981              0.0              0.0     NaN      1.0        True  wye
27  Load 18 T4    6  0.001421  0.001181              0.0              0.0     NaN      1.0        True  wye
28  Load 19 T1    7 -0.005698  0.001931              0.0              0.0     NaN      1.0        True  wye
29  Load 19 T2    7 -0.004874  0.000422              0.0              0.0     NaN      1.0        True  wye
30  Load 19 T3    7 -0.004967  0.001044              0.0              0.0     NaN      1.0        True  wye
31  Load 19 T4    7 -0.005489  0.001661              0.0              0.0     NaN      1.0        True  wye
32  Load 20 T1    8 -0.006867  0.002484              0.0              0.0     NaN      1.0        True  wye
33  Load 20 T2    8 -0.006358  0.002452              0.0              0.0     NaN      1.0        True  wye
34  Load 20 T3    8 -0.006201  0.003020              0.0              0.0     NaN      1.0        True  wye
35  Load 20 T4    8 -0.005595  0.002587              0.0              0.0     NaN      1.0        True  wye
36  Load 21 T1    9  0.003553  0.009833              0.0              0.0     NaN      1.0        True  wye
37  Load 21 T2    9  0.003115  0.008185              0.0              0.0     NaN      1.0        True  wye
38  Load 21 T3    9  0.003799  0.010190              0.0              0.0     NaN      1.0        True  wye
39  Load 21 T4    9  0.002562  0.011174              0.0              0.0     NaN      1.0        True  wye
40  Load 22 T1   10  0.004601  0.008109              0.0              0.0     NaN      1.0        True  wye
41  Load 22 T2   10  0.005945  0.010200              0.0              0.0     NaN      1.0        True  wye
42  Load 22 T3   10  0.002995  0.007490              0.0              0.0     NaN      1.0        True  wye
43  Load 22 T4   10  0.003374  0.009993              0.0              0.0     NaN      1.0        True  wye
44  Load 23 T1   11  0.006296  0.011211              0.0              0.0     NaN      1.0        True  wye
45  Load 23 T2   11  0.006925  0.010194              0.0              0.0     NaN      1.0        True  wye
46  Load 23 T3   11  0.006735  0.012651              0.0              0.0     NaN      1.0        True  wye
47  Load 23 T4   11  0.004440  0.010098              0.0              0.0     NaN      1.0        True  wye
48  Load 24 T1   12  0.000688  0.005584              0.0              0.0     NaN      1.0        True  wye
49  Load 24 T2   12 -0.000590  0.005243              0.0              0.0     NaN      1.0        True  wye
50  Load 24 T3   12 -0.000044  0.007044              0.0              0.0     NaN      1.0        True  wye
51  Load 24 T4   12  0.002972  0.005426              0.0              0.0     NaN      1.0        True  wye
52  Load 25 T1   13  0.004869  0.011365              0.0              0.0     NaN      1.0        True  wye
53  Load 25 T2   13  0.004256  0.010775              0.0              0.0     NaN      1.0        True  wye
54  Load 25 T3   13  0.004699  0.009072              0.0              0.0     NaN      1.0        True  wye
55  Load 25 T4   13  0.005356  0.010623              0.0              0.0     NaN      1.0        True  wye
56  Load 26 T1   14  0.008622  0.009925              0.0              0.0     NaN      1.0        True  wye
57  Load 26 T2   14  0.004429  0.013092              0.0              0.0     NaN      1.0        True  wye
58  Load 26 T3   14  0.006175  0.013919              0.0              0.0     NaN      1.0        True  wye
59  Load 26 T4   14  0.009658  0.012523              0.0              0.0     NaN      1.0        True  wye
--------------------------------------------------

EXT_GRID:
        name  bus  vm_pu  va_degree  slack_weight  in_service
0  ExtGrid 0   19    1.0        0.0           1.0        True
1  ExtGrid 1   21    1.0        0.0           1.0        True
--------------------------------------------------

LINE:
       name std_type  from_bus  to_bus  length_km  r_ohm_per_km  x_ohm_per_km  c_nf_per_km  g_us_per_km  max_i_ka   df  parallel  type  in_service   geo
0    Line 0     None        20      15   0.400000        0.5502         0.429          0.0          0.0      0.23  1.0         1  None        True  None
1    Line 7     None        22      17   1.100000        0.5502         0.429          0.0          0.0      0.23  1.0         1  None        True  None
2    Line 8     None        15       9   0.316228        0.5502         0.429          0.0          0.0      0.23  1.0         1  None        True  None
3   Line 17     None        17      12   0.141421        0.5502         0.429          0.0          0.0      0.23  1.0         1  None        True  None
4   Line 19     None        17      14   0.223607        0.5502         0.429          0.0          0.0      0.23  1.0         1  None        True  None
5   Line 20     None        16       0   0.136015        0.5502         0.429          0.0          0.0      0.23  1.0         1  None        True  None
6   Line 34     None        18       5   0.225610        0.5502         0.429          0.0          0.0      0.23  1.0         1  None        True  None
7   Line 36     None        18       7   0.196469        0.5502         0.429          0.0          0.0      0.23  1.0         1  None        True  None
8   Line 37     None        18       8   0.050000        0.5502         0.429          0.0          0.0      0.23  1.0         1  None        True  None
9   Line 38     None        10       9   0.141421        0.5502         0.429          0.0          0.0      0.23  1.0         1  None        True  None
10  Line 40     None        11      10   0.200000        0.5502         0.429          0.0          0.0      0.23  1.0         1  None        True  None
11  Line 43     None        14      13   0.200000        0.5502         0.429          0.0          0.0      0.23  1.0         1  None        True  None
12  Line 44     None         1       0   0.172047        0.5502         0.429          0.0          0.0      0.23  1.0         1  None        True  None
13  Line 46     None         3       0   0.194165        0.5502         0.429          0.0          0.0      0.23  1.0         1  None        True  None
14  Line 47     None         2       1   0.263059        0.5502         0.429          0.0          0.0      0.23  1.0         1  None        True  None
15  Line 52     None         8       4   0.353836        0.5502         0.429          0.0          0.0      0.23  1.0         1  None        True  None
16  Line 53     None         6       5   0.253180        0.5502         0.429          0.0          0.0      0.23  1.0         1  None        True  None
--------------------------------------------------

TRAFO:
                  name std_type  hv_bus  lv_bus  sn_mva  vn_hv_kv  vn_lv_kv  vk_percent  vkr_percent  pfe_kw  i0_percent  shift_degree tap_side  tap_neutral  tap_min  tap_max  tap_step_percent  tap_step_degree  tap_pos tap_changer_type  id_characteristic_table  tap_dependency_table  parallel   df  in_service
0  MV/LV Transformer 2     None      15      16    10.0      15.0       0.4        0.01         0.01    0.01        0.01           0.0     None          NaN      NaN      NaN               NaN              NaN      NaN              NaN                     <NA>                 False         1  1.0        True
1  MV/LV Transformer 5     None      17      18    10.0      15.0       0.4        0.01         0.01    0.01        0.01           0.0     None          NaN      NaN      NaN               NaN              NaN      NaN              NaN                     <NA>                 False         1  1.0        True
2  Slack Transformer 0     None      19      20    40.0      70.0      15.0        0.01         0.01    0.01        0.01           0.0     None          NaN      NaN      NaN               NaN              NaN      NaN              NaN                     <NA>                 False         1  1.0        True
3  Slack Transformer 1     None      21      22    40.0      70.0      15.0        0.01         0.01    0.01        0.01           0.0     None          NaN      NaN      NaN               NaN              NaN      NaN              NaN                     <NA>                 False         1  1.0        True
--------------------------------------------------

RES_BUS:
       vm_pu  va_degree      p_mw    q_mvar
0   1.004397   0.381556 -0.007406  0.000864
1   1.004761   0.521201  0.001578  0.001655
2   1.007911   0.712236 -0.003996  0.000617
3   1.005862   0.511204 -0.003035  0.001057
4   1.002383   0.343257 -0.002484  0.001452
5   0.998333   0.298021 -0.003354  0.003871
6   0.996287   0.301685  0.001421  0.001181
7   1.002727   0.235298 -0.005489  0.001661
8   1.000751   0.107713 -0.005595  0.002587
9   0.999948   0.003184  0.002562  0.011174
10  0.999939   0.003461  0.003374  0.009993
11  0.999933   0.003647  0.004440  0.010098
12  0.999906   0.005983  0.002972  0.005426
13  0.999884   0.006461  0.005356  0.010623
14  0.999890   0.006280  0.009658  0.012523
15  0.999974   0.002157  0.000000  0.000000
16  0.999975   0.002160  0.000000  0.000000
17  0.999908   0.005922  0.000000  0.000000
18  0.999909   0.005928  0.000000  0.000000
19  1.000000   0.000000  0.002349 -0.040548
20  1.000000   0.000006  0.000000  0.000000
21  1.000000   0.000000 -0.002580 -0.044384
22  1.000000   0.000006  0.000000  0.000000
--------------------------------------------------

RES_LINE:
    p_from_mw  q_from_mvar   p_to_mw  q_to_mvar         pl_mw       ql_mvar  i_from_ka   i_to_ka      i_ka  vm_from_pu  va_from_degree  vm_to_pu  va_to_degree  loading_percent
0   -0.002359     0.036548  0.002360  -0.036547  1.311964e-06  1.022960e-06   0.001410  0.001410  0.001410    1.000000        0.000006  0.999974      0.002157         0.612890
1    0.002570     0.040384 -0.002566  -0.040381  4.404625e-06  3.434359e-06   0.001558  0.001558  0.001558    1.000000        0.000006  0.999908      0.005922         0.677188
2    0.010376     0.031266 -0.010375  -0.031265  8.392341e-07  6.543646e-07   0.001268  0.001268  0.001268    0.999974        0.002157  0.999948      0.003184         0.551306
3    0.002972     0.005426 -0.002972  -0.005426  1.323909e-08  1.032274e-08   0.000238  0.000238  0.000238    0.999908        0.005922  0.999906      0.005983         0.103544
4    0.015015     0.023146 -0.015014  -0.023146  4.162913e-07  3.245892e-07   0.001062  0.001062  0.001062    0.999908        0.005922  0.999890      0.006280         0.461751
5   -0.012746     0.004281  0.012831  -0.004215  8.456571e-05  6.593728e-05   0.019408  0.019408  0.019408    0.999975        0.002160  1.004397      0.381556         8.438310
6   -0.001908     0.005072  0.001931  -0.005054  2.278569e-05  1.776638e-05   0.007822  0.007822  0.007822    0.999909        0.005928  0.998333      0.298021         3.400971
7   -0.005467     0.001678  0.005489  -0.001661  2.210140e-05  1.723282e-05   0.008255  0.008255  0.008255    0.999909        0.005928  1.002727      0.235298         3.589337
8   -0.008055     0.004058  0.008069  -0.004047  1.399022e-05  1.090840e-05   0.013020  0.013020  0.013020    0.999909        0.005928  1.000751      0.107713         5.660809
9   -0.007813    -0.020091  0.007814   0.020092  1.607284e-07  1.253226e-07   0.000830  0.000830  0.000830    0.999939        0.003461  0.999948      0.003184         0.360778
10  -0.004440    -0.010098  0.004440   0.010098  5.951728e-08  4.640660e-08   0.000425  0.000425  0.000425    0.999933        0.003647  0.999939      0.003461         0.184611
11   0.005356     0.010623 -0.005356  -0.010623  6.923355e-08  5.398254e-08   0.000458  0.000458  0.000458    0.999890        0.006280  0.999884      0.006461         0.199111
12   0.002403    -0.002284 -0.002397   0.002289  6.440640e-06  5.021873e-06   0.004762  0.004762  0.004762    1.004761        0.521201  1.004397      0.381556         2.070584
13   0.003035    -0.001057 -0.003029   0.001062  6.817664e-06  5.315845e-06   0.004612  0.004612  0.004612    1.005862        0.511204  1.004397      0.381556         2.005320
14   0.003996    -0.000617 -0.003982   0.000628  1.455944e-05  1.135224e-05   0.005791  0.005791  0.005791    1.007911        0.712236  1.004761      0.521201         2.517660
15  -0.002474     0.001460  0.002484  -0.001452  1.002686e-05  7.818104e-06   0.004143  0.004143  0.004143    1.000751        0.107713  1.002383      0.343257         1.801493
16  -0.001421    -0.001181  0.001424   0.001183  2.993234e-06  2.333874e-06   0.002676  0.002676  0.002676    0.996287        0.301685  0.998333      0.298021         1.163609
--------------------------------------------------

RES_TRAFO:
    p_hv_mw  q_hv_mvar   p_lv_mw  q_lv_mvar    pl_mw  ql_mvar   i_hv_ka   i_lv_ka  vm_hv_pu  va_hv_degree  vm_lv_pu  va_lv_degree  loading_percent
0 -0.012736   0.005281  0.012746  -0.004281  0.00001    0.001  0.000531  0.019408  0.999974      0.002157  0.999975      0.002160         0.137880
1 -0.015420   0.011808  0.015430  -0.010808  0.00001    0.001  0.000748  0.027194  0.999908      0.005922  0.999909      0.005928         0.194238
2 -0.002349   0.040548  0.002359  -0.036548  0.00001    0.004  0.000335  0.001410  1.000000      0.000000  1.000000      0.000006         0.101539
3  0.002580   0.044384 -0.002570  -0.040384  0.00001    0.004  0.000367  0.001558  1.000000      0.000000  1.000000      0.000006         0.111148
--------------------------------------------------

RES_EXT_GRID:
       p_mw    q_mvar
0 -0.002349  0.040548
1  0.002580  0.044384
--------------------------------------------------

RES_LOAD:
        p_mw    q_mvar
0  -0.000000  0.000000
1  -0.000000 -0.000000
2  -0.000000  0.000000
3  -0.007406  0.000864
4   0.000000  0.000000
5   0.000000  0.000000
6   0.000000  0.000000
7   0.001578  0.001655
8  -0.000000 -0.000000
9  -0.000000 -0.000000
10 -0.000000 -0.000000
11 -0.003996  0.000617
12 -0.000000  0.000000
13 -0.000000  0.000000
14 -0.000000 -0.000000
15 -0.003035  0.001057
16 -0.000000  0.000000
17 -0.000000 -0.000000
18 -0.000000  0.000000
19 -0.002484  0.001452
20 -0.000000  0.000000
21 -0.000000  0.000000
22 -0.000000  0.000000
23 -0.003354  0.003871
24  0.000000  0.000000
25  0.000000  0.000000
26  0.000000  0.000000
27  0.001421  0.001181
28 -0.000000  0.000000
29 -0.000000  0.000000
30 -0.000000  0.000000
31 -0.005489  0.001661
32 -0.000000  0.000000
33 -0.000000  0.000000
34 -0.000000  0.000000
35 -0.005595  0.002587
36  0.000000  0.000000
37  0.000000  0.000000
38  0.000000  0.000000
39  0.002562  0.011174
40  0.000000  0.000000
41  0.000000  0.000000
42  0.000000  0.000000
43  0.003374  0.009993
44  0.000000  0.000000
45  0.000000  0.000000
46  0.000000  0.000000
47  0.004440  0.010098
48  0.000000  0.000000
49 -0.000000  0.000000
50 -0.000000  0.000000
51  0.002972  0.005426
52  0.000000  0.000000
53  0.000000  0.000000
54  0.000000  0.000000
55  0.005356  0.010623
56  0.000000  0.000000
57  0.000000  0.000000
58  0.000000  0.000000
59  0.009658  0.012523
--------------------------------------------------

BUS_GEODATA:
        x      y
0    11.0   48.0
1    25.0   38.0
2    51.0   42.0
3     0.0   64.0
4   129.0  138.0
5   105.0   88.0
6   130.0   92.0
7    81.0  115.0
8   103.0  114.0
9    10.0   70.0
10   20.0   80.0
11   40.0   80.0
12   90.0  120.0
13  120.0  120.0
14  120.0  100.0
15    0.0   40.0
16    0.5   39.5
17  100.0  110.0
18  100.5  109.5
19    0.0    0.0
20    0.5   -0.5
21  100.0    0.0
22  100.5   -0.5
--------------------------------------------------
